plots/csv/rotor_angle_dev_bus07_julia.csv
t_s,rotor_angle_dev_rad,bus_voltage_angle_dev_rad,angle_source,angle_is_exact_bus_voltage
0.0,0.0,0.0,Vmag_get_voltage_magnitude_series__angle_get_voltage_angle_series,true
0.01,-1.6653345369377412e-17,-1.6653345369377412e-17,Vmag_get_voltage_magnitude_series__angle_get_voltage_angle_series,true
0.02,-2.414735078559724e-16,-2.414735078559724e-16,Vmag_get_voltage_magnitude_series__angle_get_voltage_angle_series,true
0.03,-2.234323837058095e-16,-2.234323837058095e-16,Vmag_get_voltage_magnitude_series__angle_get_voltage_angle_series,true
0.04,-2.525757381022328e-16,-2.525757381022328e-16,Vmag_get_voltage_magnitude_series__angle_get_voltage_angle_series,true
0.05,-1.3739009929736904e-16,-1.3739009929736904e-16,Vmag_get_voltage_magnitude_series__angle_get_voltage_angle_series,true
0.06,-1.6792123247454785e-16,-1.6792123247454785e-16,Vmag_get_voltage_magnitude_series__angle_get_voltage_angle_series,true
0.07,-1.4710455076283693e-16,-1.4710455076283693e-16,Vmag_get_voltage_magnitude_series__angle_get_voltage_angle_series,true
0.08,-2.220446049252011e-17,-2.220446049252011e-17,Vmag_get_voltage_magnitude_series__angle_get_voltage_angle_series,true
0.09,-3.469446951955116e-17,-3.469446951955116e-17,Vmag_get_voltage_magnitude_series__angle_get_voltage_angle_series,true
0.1,-1.5265566588595902e-16,-1.5265566588595902e-16,Vmag_get_voltage_magnitude_series__angle_get_voltage_angle_series,true
0.11,-0.0010055180800890723,-0.0010055180800890723,Vmag_get_voltage_magnitude_series__angle_get_voltage_angle_series,true
0.12,-0.0010807318373169932,-0.0010807318373169932,Vmag_get_voltage_magnitude_series__angle_get_voltage_angle_series,true
0.13,-0.0011319006830121101,-0.0011319006830121101,Vmag_get_voltage_magnitude_series__angle_get_voltage_angle_series,true
0.14,-0.0012575580834453496,-0.0012575580834453496,Vmag_get_voltage_magnitude_series__angle_get_voltage_angle_series,true
0.15,-0.0013498514893746792,-0.0013498514893746792,Vmag_get_voltage_magnitude_series__angle_get_voltage_angle_series,true
0.16,-0.0014736874125479615,-0.0014736874125479615,Vmag_get_voltage_magnitude_series__angle_get_voltage_angle_series,true
0.17,-0.0016074296907536653,-0.0016074296907536653,Vmag_get_voltage_magnitude_series__angle_get_voltage_angle_series,true
0.18,-0.0017565513188253419,-0.0017565513188253419,Vmag_get_voltage_magnitude_series__angle_get_voltage_angle_series,true
0.19,-0.0019174158276258095,-0.0019174158276258095,Vmag_get_voltage_magnitude_series__angle_get_voltage_angle_series,true
0.2,-0.0020911174568752394,-0.0020911174568752394,Vmag_get_voltage_magnitude_series__angle_get_voltage_angle_series,true
0.21,-0.0022762360065861475,-0.0022762360065861475,Vmag_get_voltage_magnitude_series__angle_get_voltage_angle_series,true
0.22,-0.002472460624371772,-0.002472460624371772,Vmag_get_voltage_magnitude_series__angle_get_voltage_angle_series,true
0.23,-0.002679061517218377,-0.002679061517218377,Vmag_get_voltage_magnitude_series__angle_get_voltage_angle_series,true
0.24,-0.0028955305523693086,-0.0028955305523693086,Vmag_get_voltage_magnitude_series__angle_get_voltage_angle_series,true
0.25,-0.0031213241184138156,-0.0031213241184138156,Vmag_get_voltage_magnitude_series__angle_get_voltage_angle_series,true
0.26,-0.003355946425826342,-0.003355946425826342,Vmag_get_voltage_magnitude_series__angle_get_voltage_angle_series,true
0.27,-0.0035989239230020814,-0.0035989239230020814,Vmag_get_voltage_magnitude_series__angle_get_voltage_angle_series,true
0.28,-0.0038498029295871363,-0.0038498029295871363,Vmag_get_voltage_magnitude_series__angle_get_voltage_angle_series,true
0.29,-0.0041081441884512565,-0.0041081441884512565,Vmag_get_voltage_magnitude_series__angle_get_voltage_angle_series,true
0.3,-0.004373514733358438,-0.004373514733358438,Vmag_get_voltage_magnitude_series__angle_get_voltage_angle_series,true
0.31,-0.00464548358088517,-0.00464548358088517,Vmag_get_voltage_magnitude_series__angle_get_voltage_angle_series,true
0.32,-0.00492361637039688,-0.00492361637039688,Vmag_get_voltage_magnitude_series__angle_get_voltage_angle_series,true
0.33,-0.0052074718085882874,-0.0052074718085882874,Vmag_get_voltage_magnitude_series__angle_get_voltage_angle_series,true
0.34,-0.005496598183896121,-0.005496598183896121,Vmag_get_voltage_magnitude_series__angle_get_voltage_angle_series,true
0.35,-0.0057905314600871175,-0.0057905314600871175,Vmag_get_voltage_magnitude_series__angle_get_voltage_angle_series,true
0.36,-0.006088794115826062,-0.006088794115826062,Vmag_get_voltage_magnitude_series__angle_get_voltage_angle_series,true
0.37,-0.006390894831874071,-0.006390894831874071,Vmag_get_voltage_magnitude_series__angle_get_voltage_angle_series,true
0.38,-0.006696328964949039,-0.006696328964949039,Vmag_get_voltage_magnitude_series__angle_get_voltage_angle_series,true
0.39,-0.007004579423981167,-0.007004579423981167,Vmag_get_voltage_magnitude_series__angle_get_voltage_angle_series,true
0.4,-0.007315118309410603,-0.007315118309410603,Vmag_get_voltage_magnitude_series__angle_get_voltage_angle_series,true
0.41,-0.007627408904059671,-0.007627408904059671,Vmag_get_voltage_magnitude_series__angle_get_voltage_angle_series,true
0.42,-0.007940907894970437,-0.007940907894970437,Vmag_get_voltage_magnitude_series__angle_get_voltage_angle_series,true
0.43,-0.008255067757997975,-0.008255067757997975,Vmag_get_voltage_magnitude_series__angle_get_voltage_angle_series,true
0.44,-0.00856933933193837,-0.00856933933193837,Vmag_get_voltage_magnitude_series__angle_get_voltage_angle_series,true
0.45,-0.008883174506914473,-0.008883174506914473,Vmag_get_voltage_magnitude_series__angle_get_voltage_angle_series,true
0.46,-0.009196028799925307,-0.009196028799925307,Vmag_get_voltage_magnitude_series__angle_get_voltage_angle_series,true
0.47,-0.009507363817710866,-0.009507363817710866,Vmag_get_voltage_magnitude_series__angle_get_voltage_angle_series,true
0.48,-0.00981664975475735,-0.00981664975475735,Vmag_get_voltage_magnitude_series__angle_get_voltage_angle_series,true
0.49,-0.010123367720823234,-0.010123367720823234,Vmag_get_voltage_magnitude_series__angle_get_voltage_angle_series,true
0.5,-0.010427011966191748,-0.010427011966191748,Vmag_get_voltage_magnitude_series__angle_get_voltage_angle_series,true
0.51,-0.010727091881170695,-0.010727091881170695,Vmag_get_voltage_magnitude_series__angle_get_voltage_angle_series,true
0.52,-0.011023133874747454,-0.011023133874747454,Vmag_get_voltage_magnitude_series__angle_get_voltage_angle_series,true
0.53,-0.011314683094345968,-0.011314683094345968,Vmag_get_voltage_magnitude_series__angle_get_voltage_angle_series,true
0.54,-0.011601305067139793,-0.011601305067139793,Vmag_get_voltage_magnitude_series__angle_get_voltage_angle_series,true
0.55,-0.011882587156087589,-0.011882587156087589,Vmag_get_voltage_magnitude_series__angle_get_voltage_angle_series,true
0.56,-0.01215813971758465,-0.01215813971758465,Vmag_get_voltage_magnitude_series__angle_get_voltage_angle_series,true
0.57,-0.012427597217617107,-0.012427597217617107,Vmag_get_voltage_magnitude_series__angle_get_voltage_angle_series,true
0.58,-0.012690619413331855,-0.012690619413331855,Vmag_get_voltage_magnitude_series__angle_get_voltage_angle_series,true
0.59,-0.012946892150218003,-0.012946892150218003,Vmag_get_voltage_magnitude_series__angle_get_voltage_angle_series,true
0.6,-0.013196128013447413,-0.013196128013447413,Vmag_get_voltage_magnitude_series__angle_get_voltage_angle_series,true
0.61,-0.013438066932464344,-0.013438066932464344,Vmag_get_voltage_magnitude_series__angle_get_voltage_angle_series,true
0.62,-0.013672476740260089,-0.013672476740260089,Vmag_get_voltage_magnitude_series__angle_get_voltage_angle_series,true
0.63,-0.013899153595548034,-0.013899153595548034,Vmag_get_voltage_magnitude_series__angle_get_voltage_angle_series,true
0.64,-0.014117922030478063,-0.014117922030478063,Vmag_get_voltage_magnitude_series__angle_get_voltage_angle_series,true
0.65,-0.014328635173261349,-0.014328635173261349,Vmag_get_voltage_magnitude_series__angle_get_voltage_angle_series,true
0.66,-0.014531174718013195,-0.014531174718013195,Vmag_get_voltage_magnitude_series__angle_get_voltage_angle_series,true
0.67,-0.014725450851636034,-0.014725450851636034,Vmag_get_voltage_magnitude_series__angle_get_voltage_angle_series,true
0.68,-0.014911401943665175,-0.014911401943665175,Vmag_get_voltage_magnitude_series__angle_get_voltage_angle_series,true
0.69,-0.015088994162910763,-0.015088994162910763,Vmag_get_voltage_magnitude_series__angle_get_voltage_angle_series,true
0.7,-0.015258221044659136,-0.015258221044659136,Vmag_get_voltage_magnitude_series__angle_get_voltage_angle_series,true
0.71,-0.015419102916707703,-0.015419102916707703,Vmag_get_voltage_magnitude_series__angle_get_voltage_angle_series,true
0.72,-0.015571686190775473,-0.015571686190775473,Vmag_get_voltage_magnitude_series__angle_get_voltage_angle_series,true
0.73,-0.015716042476549653,-0.015716042476549653,Vmag_get_voltage_magnitude_series__angle_get_voltage_angle_series,true
0.74,-0.015852267761054462,-0.015852267761054462,Vmag_get_voltage_magnitude_series__angle_get_voltage_angle_series,true
0.75,-0.015980481400695738,-0.015980481400695738,Vmag_get_voltage_magnitude_series__angle_get_voltage_angle_series,true
0.76,-0.016100825021292245,-0.016100825021292245,Vmag_get_voltage_magnitude_series__angle_get_voltage_angle_series,true
0.77,-0.01621346134571276,-0.01621346134571276,Vmag_get_voltage_magnitude_series__angle_get_voltage_angle_series,true
0.78,-0.016318572910130356,-0.016318572910130356,Vmag_get_voltage_magnitude_series__angle_get_voltage_angle_series,true
0.79,-0.016416360820237487,-0.016416360820237487,Vmag_get_voltage_magnitude_series__angle_get_voltage_angle_series,true
0.8,-0.016507043402134304,-0.016507043402134304,Vmag_get_voltage_magnitude_series__angle_get_voltage_angle_series,true
0.81,-0.016590854683125385,-0.016590854683125385,Vmag_get_voltage_magnitude_series__angle_get_voltage_angle_series,true
0.82,-0.016668042972134457,-0.016668042972134457,Vmag_get_voltage_magnitude_series__angle_get_voltage_angle_series,true
0.83,-0.01673886942345738,-0.01673886942345738,Vmag_get_voltage_magnitude_series__angle_get_voltage_angle_series,true
0.84,-0.016803606500272197,-0.016803606500272197,Vmag_get_voltage_magnitude_series__angle_get_voltage_angle_series,true
0.85,-0.01686253642770476,-0.01686253642770476,Vmag_get_voltage_magnitude_series__angle_get_voltage_angle_series,true
0.86,-0.01691594965431317,-0.01691594965431317,Vmag_get_voltage_magnitude_series__angle_get_voltage_angle_series,true
0.87,-0.016964143325638635,-0.016964143325638635,Vmag_get_voltage_magnitude_series__angle_get_voltage_angle_series,true
0.88,-0.017007419822077728,-0.017007419822077728,Vmag_get_voltage_magnitude_series__angle_get_voltage_angle_series,true
0.89,-0.017046085249481806,-0.017046085249481806,Vmag_get_voltage_magnitude_series__angle_get_voltage_angle_series,true
0.9,-0.0170804479313958,-0.0170804479313958,Vmag_get_voltage_magnitude_series__angle_get_voltage_angle_series,true
0.91,-0.01711081694259124,-0.01711081694259124,Vmag_get_voltage_magnitude_series__angle_get_voltage_angle_series,true
0.92,-0.01713750086387452,-0.01713750086387452,Vmag_get_voltage_magnitude_series__angle_get_voltage_angle_series,true
0.93,-0.01716080636023549,-0.01716080636023549,Vmag_get_voltage_magnitude_series__angle_get_voltage_angle_series,true
0.94,-0.017181036863365227,-0.017181036863365227,Vmag_get_voltage_magnitude_series__angle_get_voltage_angle_series,true
0.95,-0.017198491359631793,-0.017198491359631793,Vmag_get_voltage_magnitude_series__angle_get_voltage_angle_series,true
0.96,-0.017213463299938503,-0.017213463299938503,Vmag_get_voltage_magnitude_series__angle_get_voltage_angle_series,true
0.97,-0.01722623948992541,-0.01722623948992541,Vmag_get_voltage_magnitude_series__angle_get_voltage_angle_series,true
0.98,-0.017237099009058805,-0.017237099009058805,Vmag_get_voltage_magnitude_series__angle_get_voltage_angle_series,true
0.99,-0.017246312284196375,-0.017246312284196375,Vmag_get_voltage_magnitude_series__angle_get_voltage_angle_series,true
1.0,-0.01725414030642944,-0.01725414030642944,Vmag_get_voltage_magnitude_series__angle_get_voltage_angle_series,true
1.01,-0.017260833797665603,-0.017260833797665603,Vmag_get_voltage_magnitude_series__angle_get_voltage_angle_series,true
1.02,-0.017266632518991826,-0.017266632518991826,Vmag_get_voltage_magnitude_series__angle_get_voltage_angle_series,true
1.03,-0.017271764626016543,-0.017271764626016543,Vmag_get_voltage_magnitude_series__angle_get_voltage_angle_series,true
1.04,-0.017276446150928777,-0.017276446150928777,Vmag_get_voltage_magnitude_series__angle_get_voltage_angle_series,true
1.05,-0.017280880624022707,-0.017280880624022707,Vmag_get_voltage_magnitude_series__angle_get_voltage_angle_series,true
1.06,-0.017285258621568864,-0.017285258621568864,Vmag_get_voltage_magnitude_series__angle_get_voltage_angle_series,true
1.07,-0.017289757511144352,-0.017289757511144352,Vmag_get_voltage_magnitude_series__angle_get_voltage_angle_series,true
1.08,-0.017294541245516597,-0.017294541245516597,Vmag_get_voltage_magnitude_series__angle_get_voltage_angle_series,true
1.09,-0.017299760248713332,-0.017299760248713332,Vmag_get_voltage_magnitude_series__angle_get_voltage_angle_series,true
1.1,-0.01730555138283866,-0.01730555138283866,Vmag_get_voltage_magnitude_series__angle_get_voltage_angle_series,true
1.11,-0.017312037928294166,-0.017312037928294166,Vmag_get_voltage_magnitude_series__angle_get_voltage_angle_series,true
1.12,-0.017319329701919923,-0.017319329701919923,Vmag_get_voltage_magnitude_series__angle_get_voltage_angle_series,true
1.13,-0.017327523224947315,-0.017327523224947315,Vmag_get_voltage_magnitude_series__angle_get_voltage_angle_series,true
1.14,-0.017336701957025066,-0.017336701957025066,Vmag_get_voltage_magnitude_series__angle_get_voltage_angle_series,true
1.15,-0.017346936562714754,-0.017346936562714754,Vmag_get_voltage_magnitude_series__angle_get_voltage_angle_series,true
1.16,-0.01735828525299071,-0.01735828525299071,Vmag_get_voltage_magnitude_series__angle_get_voltage_angle_series,true
1.17,-0.017370794164536737,-0.017370794164536737,Vmag_get_voltage_magnitude_series__angle_get_voltage_angle_series,true
1.18,-0.01738449786575994,-0.01738449786575994,Vmag_get_voltage_magnitude_series__angle_get_voltage_angle_series,true
1.19,-0.01739941978770291,-0.01739941978770291,Vmag_get_voltage_magnitude_series__angle_get_voltage_angle_series,true
1.2,-0.017415572718419217,-0.017415572718419217,Vmag_get_voltage_magnitude_series__angle_get_voltage_angle_series,true
1.21,-0.017432959386053035,-0.017432959386053035,Vmag_get_voltage_magnitude_series__angle_get_voltage_angle_series,true
1.22,-0.017451573092713675,-0.017451573092713675,Vmag_get_voltage_magnitude_series__angle_get_voltage_angle_series,true
1.23,-0.017471398277673703,-0.017471398277673703,Vmag_get_voltage_magnitude_series__angle_get_voltage_angle_series,true
1.24,-0.017492411107807065,-0.017492411107807065,Vmag_get_voltage_magnitude_series__angle_get_voltage_angle_series,true
1.25,-0.017514580156767334,-0.017514580156767334,Vmag_get_voltage_magnitude_series__angle_get_voltage_angle_series,true
1.26,-0.017537867112938435,-0.017537867112938435,Vmag_get_voltage_magnitude_series__angle_get_voltage_angle_series,true
1.27,-0.017562227376100508,-0.017562227376100508,Vmag_get_voltage_magnitude_series__angle_get_voltage_angle_series,true
1.28,-0.01758761073694732,-0.01758761073694732,Vmag_get_voltage_magnitude_series__angle_get_voltage_angle_series,true
1.29,-0.01761396201868249,-0.01761396201868249,Vmag_get_voltage_magnitude_series__angle_get_voltage_angle_series,true
1.3,-0.017641221790369546,-0.017641221790369546,Vmag_get_voltage_magnitude_series__angle_get_voltage_angle_series,true
1.31,-0.01766932700852711,-0.01766932700852711,Vmag_get_voltage_magnitude_series__angle_get_voltage_angle_series,true
1.32,-0.017698211604443008,-0.017698211604443008,Vmag_get_voltage_magnitude_series__angle_get_voltage_angle_series,true
1.33,-0.017727807133991247,-0.017727807133991247,Vmag_get_voltage_magnitude_series__angle_get_voltage_angle_series,true
1.34,-0.017758043391645703,-0.017758043391645703,Vmag_get_voltage_magnitude_series__angle_get_voltage_angle_series,true
1.35,-0.017788848997369516,-0.017788848997369516,Vmag_get_voltage_magnitude_series__angle_get_voltage_angle_series,true
1.36,-0.017820151961261355,-0.017820151961261355,Vmag_get_voltage_magnitude_series__angle_get_voltage_angle_series,true
1.37,-0.017851880149665406,-0.017851880149665406,Vmag_get_voltage_magnitude_series__angle_get_voltage_angle_series,true
1.38,-0.01788396187446298,-0.01788396187446298,Vmag_get_voltage_magnitude_series__angle_get_voltage_angle_series,true
1.39,-0.017916326329597807,-0.017916326329597807,Vmag_get_voltage_magnitude_series__angle_get_voltage_angle_series,true
1.4,-0.01794890404001092,-0.01794890404001092,Vmag_get_voltage_magnitude_series__angle_get_voltage_angle_series,true
1.41,-0.017981627265952517,-0.017981627265952517,Vmag_get_voltage_magnitude_series__angle_get_voltage_angle_series,true
1.42,-0.01801443037570556,-0.01801443037570556,Vmag_get_voltage_magnitude_series__angle_get_voltage_angle_series,true
1.43,-0.01804725020806142,-0.01804725020806142,Vmag_get_voltage_magnitude_series__angle_get_voltage_angle_series,true
1.44,-0.018080026366855798,-0.018080026366855798,Vmag_get_voltage_magnitude_series__angle_get_voltage_angle_series,true
1.45,-0.01811270148343984,-0.01811270148343984,Vmag_get_voltage_magnitude_series__angle_get_voltage_angle_series,true
1.46,-0.018145221459822367,-0.018145221459822367,Vmag_get_voltage_magnitude_series__angle_get_voltage_angle_series,true
1.47,-0.018177535675362917,-0.018177535675362917,Vmag_get_voltage_magnitude_series__angle_get_voltage_angle_series,true
1.48,-0.018209597150115296,-0.018209597150115296,Vmag_get_voltage_magnitude_series__angle_get_voltage_angle_series,true
1.49,-0.018241362673262547,-0.018241362673262547,Vmag_get_voltage_magnitude_series__angle_get_voltage_angle_series,true
1.5,-0.018272792884121657,-0.018272792884121657,Vmag_get_voltage_magnitude_series__angle_get_voltage_angle_series,true
1.51,-0.01830385236570599,-0.01830385236570599,Vmag_get_voltage_magnitude_series__angle_get_voltage_angle_series,true
1.52,-0.018334509671966155,-0.018334509671966155,Vmag_get_voltage_magnitude_series__angle_get_voltage_angle_series,true
1.53,-0.018364737314005,-0.018364737314005,Vmag_get_voltage_magnitude_series__angle_get_voltage_angle_series,true
1.54,-0.018394511747068926,-0.018394511747068926,Vmag_get_voltage_magnitude_series__angle_get_voltage_angle_series,true
1.55,-0.018423813313528704,-0.018423813313528704,Vmag_get_voltage_magnitude_series__angle_get_voltage_angle_series,true
1.56,-0.018452626174607946,-0.018452626174607946,Vmag_get_voltage_magnitude_series__angle_get_voltage_angle_series,true
1.57,-0.018480938199948463,-0.018480938199948463,Vmag_get_voltage_magnitude_series__angle_get_voltage_angle_series,true
1.58,-0.018508740842745355,-0.018508740842745355,Vmag_get_voltage_magnitude_series__angle_get_voltage_angle_series,true
1.59,-0.01853602899073006,-0.01853602899073006,Vmag_get_voltage_magnitude_series__angle_get_voltage_angle_series,true
1.6,-0.018562800824266507,-0.018562800824266507,Vmag_get_voltage_magnitude_series__angle_get_voltage_angle_series,true
1.61,-0.018589057627655545,-0.018589057627655545,Vmag_get_voltage_magnitude_series__angle_get_voltage_angle_series,true
1.62,-0.018614803588332084,-0.018614803588332084,Vmag_get_voltage_magnitude_series__angle_get_voltage_angle_series,true
1.63,-0.018640045601646442,-0.018640045601646442,Vmag_get_voltage_magnitude_series__angle_get_voltage_angle_series,true
1.64,-0.01866479306397241,-0.01866479306397241,Vmag_get_voltage_magnitude_series__angle_get_voltage_angle_series,true
1.65,-0.01868905765086884,-0.01868905765086884,Vmag_get_voltage_magnitude_series__angle_get_voltage_angle_series,true
1.66,-0.018712853077464862,-0.018712853077464862,Vmag_get_voltage_magnitude_series__angle_get_voltage_angle_series,true
1.67,-0.018736194872647716,-0.018736194872647716,Vmag_get_voltage_magnitude_series__angle_get_voltage_angle_series,true
1.68,-0.01875910015734346,-0.01875910015734346,Vmag_get_voltage_magnitude_series__angle_get_voltage_angle_series,true
1.69,-0.01878158740959985,-0.01878158740959985,Vmag_get_voltage_magnitude_series__angle_get_voltage_angle_series,true
1.7,-0.018803676219787492,-0.018803676219787492,Vmag_get_voltage_magnitude_series__angle_get_voltage_angle_series,true
1.71,-0.018825387072689544,-0.018825387072689544,Vmag_get_voltage_magnitude_series__angle_get_voltage_angle_series,true
1.72,-0.01884674112194262,-0.01884674112194262,Vmag_get_voltage_magnitude_series__angle_get_voltage_angle_series,true
1.73,-0.01886775998058598,-0.01886775998058598,Vmag_get_voltage_magnitude_series__angle_get_voltage_angle_series,true
1.74,-0.018888465506739456,-0.018888465506739456,Vmag_get_voltage_magnitude_series__angle_get_voltage_angle_series,true
1.75,-0.018908879593784546,-0.018908879593784546,Vmag_get_voltage_magnitude_series__angle_get_voltage_angle_series,true
1.76,-0.01892902399422466,-0.01892902399422466,Vmag_get_voltage_magnitude_series__angle_get_voltage_angle_series,true
1.77,-0.01894892013335081,-0.01894892013335081,Vmag_get_voltage_magnitude_series__angle_get_voltage_angle_series,true
1.78,-0.018968588945577052,-0.018968588945577052,Vmag_get_voltage_magnitude_series__angle_get_voltage_angle_series,true
1.79,-0.018988050713715853,-0.018988050713715853,Vmag_get_voltage_magnitude_series__angle_get_voltage_angle_series,true
1.8,-0.01900732492798038,-0.01900732492798038,Vmag_get_voltage_magnitude_series__angle_get_voltage_angle_series,true
1.81,-0.019026430161627732,-0.019026430161627732,Vmag_get_voltage_magnitude_series__angle_get_voltage_angle_series,true
1.82,-0.019045383956718096,-0.019045383956718096,Vmag_get_voltage_magnitude_series__angle_get_voltage_angle_series,true
1.83,-0.01906420271928306,-0.01906420271928306,Vmag_get_voltage_magnitude_series__angle_get_voltage_angle_series,true
1.84,-0.01908290163520239,-0.01908290163520239,Vmag_get_voltage_magnitude_series__angle_get_voltage_angle_series,true
1.85,-0.01910149460031497,-0.01910149460031497,Vmag_get_voltage_magnitude_series__angle_get_voltage_angle_series,true
1.86,-0.019119994165452264,-0.019119994165452264,Vmag_get_voltage_magnitude_series__angle_get_voltage_angle_series,true
1.87,-0.01913841149326725,-0.01913841149326725,Vmag_get_voltage_magnitude_series__angle_get_voltage_angle_series,true
1.88,-0.01915675632183568,-0.01915675632183568,Vmag_get_voltage_magnitude_series__angle_get_voltage_angle_series,true
1.89,-0.01917503695346822,-0.01917503695346822,Vmag_get_voltage_magnitude_series__angle_get_voltage_angle_series,true
1.9,-0.01919326026143018,-0.01919326026143018,Vmag_get_voltage_magnitude_series__angle_get_voltage_angle_series,true
1.91,-0.019211431691375735,-0.019211431691375735,Vmag_get_voltage_magnitude_series__angle_get_voltage_angle_series,true
1.92,-0.01922955527625822,-0.01922955527625822,Vmag_get_voltage_magnitude_series__angle_get_voltage_angle_series,true
1.93,-0.019247633675226746,-0.019247633675226746,Vmag_get_voltage_magnitude_series__angle_get_voltage_angle_series,true
1.94,-0.01926566822629691,-0.01926566822629691,Vmag_get_voltage_magnitude_series__angle_get_voltage_angle_series,true
1.95,-0.019283658985599188,-0.019283658985599188,Vmag_get_voltage_magnitude_series__angle_get_voltage_angle_series,true
1.96,-0.01930160479141868,-0.01930160479141868,Vmag_get_voltage_magnitude_series__angle_get_voltage_angle_series,true
1.97,-0.01931950333296665,-0.01931950333296665,Vmag_get_voltage_magnitude_series__angle_get_voltage_angle_series,true
1.98,-0.01933735122935639,-0.01933735122935639,Vmag_get_voltage_magnitude_series__angle_get_voltage_angle_series,true
1.99,-0.019355144111411066,-0.019355144111411066,Vmag_get_voltage_magnitude_series__angle_get_voltage_angle_series,true
...
